Program Version,EnergyPlus, Version 9.4.0-998c4b761e, YMD=2023.03.06 09:31,
   ** Warning ** CheckEnvironmentSpecifications: SimulationControl specified doing design day simulations, but no design environments specified.
   **   ~~~   ** ...No design environment results produced. For these results, add appropriate SizingPeriod:* objects for your simulation.
   ** Severe  ** Standard Time Meridian and Time Zone differ by more than 2, Difference="16.0"
   **   ~~~   ** Solar Positions will be incorrect
   ** Warning ** ProcessScheduleInput: Schedule:Constant="ALWAYS OFF DISCRETE", Blank Schedule Type Limits Name input -- will not be validated.
   ** Warning ** ProcessScheduleInput: Schedule:Constant="ALWAYS ON CONTINUOUS", Blank Schedule Type Limits Name input -- will not be validated.
   ** Severe  ** FenestrationSurface:Detailed="NORTHZONE_EASTDOOR", invalid blank Outside Boundary Condition Object
   **   ~~~   ** ...when Base surface uses "Surface" as Outside Boundary Condition Object, subsurfaces must also specify specific surfaces in the adjacent zone.
   ** Severe  ** FenestrationSurface:Detailed="EASTZONE_DOOR", invalid blank Outside Boundary Condition Object
   **   ~~~   ** ...when Base surface uses "Surface" as Outside Boundary Condition Object, subsurfaces must also specify specific surfaces in the adjacent zone.
   **  Fatal  ** GetSurfaceData: Errors discovered, program terminates.
   ...Summary of Errors that led to program termination:
   ..... Reference severe error count=3
   ..... Last severe error=FenestrationSurface:Detailed="EASTZONE_DOOR", invalid blank Outside Boundary Condition Object
   ************* Warning:  Node connection errors not checked - most system input has not been read (see previous warning).
   ************* Fatal error -- final processing.  Program exited before simulations began.  See previous error messages.
   ************* EnergyPlus Warmup Error Summary. During Warmup: 0 Warning; 0 Severe Errors.
   ************* EnergyPlus Sizing Error Summary. During Sizing: 0 Warning; 0 Severe Errors.
   ************* EnergyPlus Terminated--Fatal Error Detected. 3 Warning; 3 Severe Errors; Elapsed Time=00hr 00min  0.28sec
