Program Version,EnergyPlus, Version 22.2.0-c249759bad, YMD=2023.03.01 14:49,
   ** Warning ** Weather file location will be used rather than entered (IDF) Location object.
   **   ~~~   ** ..Location object=CA_PALO-ALTO-AP
   **   ~~~   ** ..Weather File Location=San Francisco Intl Ap CA USA TMY3 WMO#=724940
   **   ~~~   ** ..due to location differences, Latitude difference=[0.15] degrees, Longitude difference=[244.52] degrees.
   **   ~~~   ** ..Time Zone difference=[0.0] hour(s), Elevation difference=[0.00] percent, [0.00] meters.
   ** Warning ** ProcessScheduleInput: Schedule:Constant="ALWAYS OFF DISCRETE", Blank schedule_type_limits_name input -- will not be validated.
   ** Warning ** ProcessScheduleInput: Schedule:Constant="ALWAYS ON CONTINUOUS", Blank schedule_type_limits_name input -- will not be validated.
   ** Warning ** GetSurfaceData: There are 4 coincident/collinear vertices; These have been deleted unless the deletion would bring the number of surface sides < 3.
   **   ~~~   ** For explicit details on each problem surface, use Output:Diagnostics,DisplayExtraWarnings;
   ** Severe  ** GetSurfaceData: There are 2 degenerate surfaces; Degenerate surfaces are those with number of sides < 3.
   **   ~~~   ** These surfaces should be deleted.
   **   ~~~   ** For explicit details on each problem surface, use Output:Diagnostics,DisplayExtraWarnings;
   ** Warning ** CalculateZoneVolume: 2 zones are not fully enclosed. For more details use:  Output:Diagnostics,DisplayExtrawarnings; 
   ** Warning ** CheckUsedConstructions: There are 14 nominally unused constructions in input.
   **   ~~~   ** For explicit details on each unused construction, use Output:Diagnostics,DisplayExtraWarnings;
   ** Warning ** Output:Meter: invalid key_name="NATURALGAS:FACILITY" - not found.
   ** Warning ** Output:Meter: invalid key_name="DISTRICTCOOLING:FACILITY" - not found.
   ** Warning ** Output:Meter: invalid key_name="DISTRICTHEATING:FACILITY" - not found.
   ** Warning ** Output:Meter:MeterFileOnly: invalid key_name="NATURALGAS:FACILITY" - not found.
   ** Warning ** Output:Meter:MeterFileOnly requested for "Electricity:Facility" (TimeStep), already on "Output:Meter". Will report to both eplusout.eso and eplusout.mtr
   ************* Testing Individual Branch Integrity
   ************* All Branches passed integrity testing
   ************* Testing Individual Supply Air Path Integrity
   ************* All Supply Air Paths passed integrity testing
   ************* Testing Individual Return Air Path Integrity
   ************* All Return Air Paths passed integrity testing
   ************* No node connection errors were found.
   ************* Beginning Simulation
   ** Warning ** Output:Table:Monthly requested with SimulationControl Run Simulation for Weather File Run Periods set to No so Output:Table:Monthly will not be generated
   ************* Simulation Error Summary *************
   ** Warning ** The following Report Variables were requested but not generated -- check.rdd file
   **   ~~~   ** Either the IDF did not contain these elements, the variable name is misspelled,
   **   ~~~   ** or the requested variable is an advanced output which requires Output : Diagnostics, DisplayAdvancedReportVariables;
   ************* Key=*, VarName=DAYLIGHTING WINDOW REFERENCE POINT 2 VIEW LUMINANCE, Frequency=Hourly
   ************* Key=*, VarName=DAYLIGHTING WINDOW REFERENCE POINT 1 ILLUMINANCE, Frequency=Hourly
   ************* Key=*, VarName=DAYLIGHTING WINDOW REFERENCE POINT 1 VIEW LUMINANCE, Frequency=Hourly
   ************* Key=*, VarName=DAYLIGHTING WINDOW REFERENCE POINT 2 ILLUMINANCE, Frequency=Hourly
   ************* There are 16 unused objects in input.
   ************* Use Output:Diagnostics,DisplayUnusedObjects; to see them.
   ************* There are 18 unused schedules in input.
   ************* There are 25 unused week schedules in input.
   ************* There are 59 unused day schedules in input.
   ************* Use Output:Diagnostics,DisplayUnusedSchedules; to see them.
   *************
   ************* ===== Final Error Summary =====
   ************* The following error categories occurred.  Consider correcting or noting.
   ************* Nominally Unused Constructions
   ************* ..The nominally unused constructions warning is provided to alert you to potential conditions that can cause
   ************* ..extra time during simulation. Each construction is calculated by the algorithm indicated in the HeatBalanceAlgorithm
   ************* ..object. You may remove the constructions indicated (when you use the DisplayExtraWarnings option).
   *************
   ************* EnergyPlus Warmup Error Summary. During Warmup: 0 Warning; 0 Severe Errors.
   ************* EnergyPlus Sizing Error Summary. During Sizing: 0 Warning; 0 Severe Errors.
   ************* EnergyPlus Completed Successfully-- 16 Warning; 2 Severe Errors; Elapsed Time=00hr 00min  0.44sec
